Version 4
SHEET 1 1380 680
WIRE 608 -544 448 -544
WIRE 608 -480 608 -544
WIRE 960 -480 816 -480
WIRE 448 -432 448 -544
WIRE 816 -432 816 -480
WIRE 608 -336 608 -400
WIRE 816 -320 816 -352
WIRE 608 -208 608 -256
WIRE 672 -208 608 -208
WIRE 960 -208 960 -480
WIRE 960 -208 864 -208
WIRE 1168 -144 864 -144
WIRE 1312 -144 1168 -144
WIRE 672 -112 304 -112
WIRE 1168 -64 1168 -144
WIRE 304 64 304 -112
WIRE 400 64 304 64
WIRE 560 64 496 64
WIRE 1168 64 1168 16
WIRE 560 160 560 64
WIRE 48 176 -80 176
WIRE 480 176 480 112
WIRE 480 176 128 176
WIRE 480 208 480 176
WIRE -80 224 -80 176
WIRE 480 320 480 288
WIRE -80 384 -80 304
WIRE -80 384 -96 384
WIRE 480 416 480 384
FLAG -80 384 0
FLAG 560 160 0
FLAG 816 -320 0
FLAG 1312 -144 OUT
FLAG -80 176 IN
FLAG 448 -432 0
FLAG 1168 64 0
FLAG 480 416 0
SYMBOL voltage -80 208 R0
WINDOW 123 0 0 Left 0
WINDOW 39 0 0 Left 0
SYMATTR InstName V1
SYMATTR Value PULSE(0 3.3 10ms 0.5ms 0.5ms 5ms 10ms)
SYMBOL res 144 160 R90
WINDOW 0 0 56 VBottom 2
WINDOW 3 32 56 VTop 2
SYMATTR InstName R1
SYMATTR Value 1k
SYMBOL nmos 400 112 R270
SYMATTR InstName M1
SYMATTR Value Si7336ADP
SYMBOL Optos\\CNY17-1 768 -144 R0
SYMATTR InstName U1
SYMBOL res 624 -240 R180
WINDOW 0 36 76 Left 2
WINDOW 3 36 40 Left 2
SYMATTR InstName R2
SYMATTR Value 1k
SYMBOL voltage 816 -448 R0
WINDOW 123 0 0 Left 0
WINDOW 39 0 0 Left 0
SYMATTR InstName V3
SYMATTR Value 24
SYMBOL res 1152 -80 R0
SYMATTR InstName R3
SYMATTR Value 47k
SYMBOL voltage 608 -384 R180
WINDOW 0 24 96 Left 2
WINDOW 3 24 16 Left 2
WINDOW 123 0 0 Left 0
WINDOW 39 0 0 Left 0
SYMATTR InstName V2
SYMATTR Value 3.3
SYMBOL res 464 192 R0
SYMATTR InstName R4
SYMATTR Value 220
SYMBOL LED 464 320 R0
SYMATTR InstName D1
SYMATTR Value NSCW100
TEXT -114 408 Left 2 !.tran 100ms startup
