Version 4
SHEET 1 1612 680
WIRE 1120 -304 1008 -304
WIRE 1008 -256 1008 -304
WIRE 1120 -224 1120 -304
WIRE 1008 -96 1008 -176
WIRE 16 96 -320 96
WIRE 320 96 112 96
WIRE 368 96 320 96
WIRE 512 96 448 96
WIRE 608 96 512 96
WIRE 1008 96 1008 -16
WIRE 1008 96 800 96
WIRE 512 112 512 96
WIRE 96 144 96 96
WIRE 320 144 320 96
WIRE 1120 160 800 160
WIRE 1184 160 1120 160
WIRE 512 192 512 176
WIRE 608 192 512 192
WIRE 848 192 800 192
WIRE 960 192 848 192
WIRE -64 240 -80 240
WIRE 96 240 96 144
WIRE 96 240 16 240
WIRE 320 240 320 208
WIRE 320 240 96 240
WIRE 1120 240 1120 160
WIRE 848 272 848 192
WIRE 960 272 960 192
WIRE -80 304 -80 240
WIRE 512 304 512 192
WIRE -320 336 -320 96
WIRE 1120 368 1120 320
WIRE 848 400 848 352
WIRE 960 400 960 336
WIRE 960 400 848 400
WIRE 848 480 848 400
WIRE 1120 480 1120 432
WIRE -320 496 -320 416
FLAG -320 496 0
FLAG 512 304 0
FLAG 1120 -224 0
FLAG -320 96 IN
FLAG -80 304 0
FLAG 848 480 0
FLAG 1184 160 OUT
FLAG 1120 480 0
SYMBOL voltage -320 320 R0
WINDOW 123 0 0 Left 0
WINDOW 39 0 0 Left 0
SYMATTR InstName V1
SYMATTR Value PULSE(0 24 10ms 0.5ms 0.5ms 5ms 10ms)
SYMBOL pmos 16 144 R270
SYMATTR InstName M1
SYMATTR Value Si7137DP
SYMBOL res 32 224 R90
WINDOW 0 0 56 VBottom 2
WINDOW 3 32 56 VTop 2
SYMATTR InstName R1
SYMATTR Value 47k
SYMBOL schottky 336 208 R180
WINDOW 0 24 64 Left 2
WINDOW 3 24 0 Left 2
SYMATTR InstName D1
SYMATTR Value PMEG3005AEA
SYMATTR Description Zener Diode
SYMATTR Type zener
SYMBOL res 464 80 R90
WINDOW 0 0 56 VBottom 2
WINDOW 3 32 56 VTop 2
SYMATTR InstName R2
SYMATTR Value 1k
SYMBOL voltage 1008 -160 R180
WINDOW 0 24 96 Left 2
WINDOW 3 24 16 Left 2
WINDOW 123 0 0 Left 0
WINDOW 39 0 0 Left 0
SYMATTR InstName V2
SYMATTR Value 3.3
SYMBOL cap 496 112 R0
SYMATTR InstName C1
SYMATTR Value 1n
SYMBOL res 992 -112 R0
SYMATTR InstName R3
SYMATTR Value 1k
SYMBOL res 832 256 R0
SYMATTR InstName R4
SYMATTR Value 270k
SYMBOL cap 944 272 R0
SYMATTR InstName C2
SYMATTR Value 470p
SYMBOL Optos\\CNY17-1 704 160 R0
SYMATTR InstName U1
SYMBOL res 1104 224 R0
SYMATTR InstName R5
SYMATTR Value 47k
SYMBOL LED 1104 368 R0
SYMATTR InstName D2
SYMATTR Value NSCW100
TEXT -354 552 Left 2 !.tran 100ms startup
